set GAMEPATH=C:\Program Files\The Witcher 3 Wild Hunt
set WITCHERBASEDIR=D:\Games\Witcher3\W3UncookedBnW
set MODKITPATH=C:\Program Files\The Witcher 3 Wild Hunt\Witcher 3 Mod Kit\bin\x64
set NAME=modPS4

set MODPATH=%~dp0
set MODDED=%MODPATH%%NAME%\files
set PACKED=%MODPATH%Compiled\%NAME%\content
set PACKEDSCRIPTS=%MODPATH%Compiled\%NAME%
set COMPILED=%MODPATH%Compiled
set SCRIPTS=%MODPATH%Script
